
#======================================================================
# CRYSTAL DATA
#----------------------------------------------------------------------
data_VESTA_phase_1

_chemical_name_common                  'Mo  S '
_cell_length_a                         3.154637
_cell_length_b                         3.154637
_cell_length_c                         15.552132
_cell_angle_alpha                      90.000000
_cell_angle_beta                       90.000000
_cell_angle_gamma                      120.000000
_cell_volume                           134.035365
_space_group_name_H-M_alt              'P 1'
_space_group_IT_number                 1

loop_
_space_group_symop_operation_xyz
   'x, y, z'

loop_
   _atom_site_label
   _atom_site_occupancy
   _atom_site_fract_x
   _atom_site_fract_y
   _atom_site_fract_z
   _atom_site_adp_type
   _atom_site_U_iso_or_equiv
   _atom_site_type_symbol
   Mo1        1.0     0.666667     0.333333     0.250000    Uiso  ? Mo
   S1         1.0     0.333333     0.666667     0.149132    Uiso  ? S
   S2         1.0     0.333333     0.666667     0.350868    Uiso  ? S
