
#======================================================================
# CRYSTAL DATA
#----------------------------------------------------------------------
data_VESTA_phase_1

_chemical_name_common                  'Ge Se                                 '
_cell_length_a                         3.963327
_cell_length_b                         4.242681
_cell_length_c                         12.363770
_cell_angle_alpha                      90.000000
_cell_angle_beta                       90.000000
_cell_angle_gamma                      90.000000
_cell_volume                           207.898404
_space_group_name_H-M_alt              'P 1'
_space_group_IT_number                 1

loop_
_space_group_symop_operation_xyz
   'x, y, z'

loop_
   _atom_site_label
   _atom_site_occupancy
   _atom_site_fract_x
   _atom_site_fract_y
   _atom_site_fract_z
   _atom_site_adp_type
   _atom_site_U_iso_or_equiv
   _atom_site_type_symbol
   Ge1        1.0     0.750000     0.607337     0.151568    Uiso  ? Ge
   Ge2        1.0     0.250000     0.107337     0.348432    Uiso  ? Ge
   Se1        1.0     0.750000     0.525842     0.355189    Uiso  ? Se
   Se2        1.0     0.250000     0.025842     0.144811    Uiso  ? Se
